126

Be    1.229463    2.443915    2.078796
Be    5.117792    8.549854    6.269784
Be    3.616031   10.836557    2.078796
Be    2.731224    0.157211    6.269784
Be   -4.845495    8.707065    2.078796
Be   11.192750    2.286704    6.269784
Be    7.576719    6.108504    4.861657
Be    5.117792    1.220675    0.704064
Be    3.616031    3.507379    4.861657
Be    9.078480    3.821800    0.704064
Be    7.849016    1.377886    4.861657
Be    4.845495    5.951293    0.704064
Be    1.229463    9.773094    7.644516
Be   -1.229463    4.885264    3.486924
Be   -2.731224    7.171968    7.644516
Be    2.731224    7.486390    3.486924
Be    1.501761    5.042475    7.644516
Be   -1.501760    9.615883    3.486924
 N    1.994308    0.802545    2.075457
 N    4.352948   10.191223    6.273123
 N   11.002332    1.325848    2.075457
 N   -4.655077    9.667920    6.273123
 N    6.045126    8.865375    2.075457
 N    0.302129    2.128394    6.273123
 N    8.341563    4.467134    4.858317
 N    4.352948    2.862044    0.707403
 N    4.655077    4.990438    4.858317
 N    8.039433    2.338741    0.707403
 N    6.045125    1.536196    4.858317
 N    6.649385    5.792983    0.707403
 N    1.994308    8.131723    7.641178
 N   -1.994308    6.526634    3.490263
 N   -1.692178    8.655027    7.641178
 N    1.692178    6.003330    3.490263
 N   -0.302129    5.200785    7.641178
 N    0.302129    9.457573    3.490263
 N    2.119349    3.624645    2.179814
 N    4.227907    7.369123    6.168766
 N    8.495801    0.023087    2.179814
 N   -2.148546   10.970682    6.168766
 N    8.426616    7.346036    2.179814
 N   -2.079361    3.647732    6.168766
 N    8.466604    7.289235    4.962674
 N    4.227906    0.039944    0.603046
 N    2.148546    3.687677    4.962674
 N   10.545965    3.641502    0.603046
 N    8.426616    0.016857    4.962674
 N    4.267894    7.312322    0.603046
 N    2.119349   10.953825    7.745535
 N   -2.119349    3.704534    3.385906
 N   -4.198709    7.352266    7.745535
 N    4.198709    7.306092    3.385906
 N    2.079361    3.681446    7.745535
 N   -2.079360   10.976912    3.385906
 N    0.271662    2.372455    0.672061
 N    6.075593    8.621313    7.676519
 N    4.156817   10.042808    0.672061
 N    2.190438    0.950961    7.676519
 N   -4.428480    9.572274    0.672061
 N   10.775735    1.421494    7.676519
 N    6.618918    6.037045    3.454921
 N    6.075593    1.292134    2.110799
 N    4.156817    2.713629    3.454921
 N    8.537693    4.615551    2.110799
 N    8.266030    2.243095    3.454921
 N    4.428480    5.086084    2.110799
 N    0.271663    9.701634    6.237781
 N   -0.271663    4.956724    4.893660
 N   -2.190438    6.378218    6.237781
 N    2.190438    8.280140    4.893660
 N    1.918775    5.907685    6.237781
 N   -1.918775    8.750673    4.893660
 N    0.202477    2.501082    3.499725
 N    6.144778    8.492686    4.848855
 N    4.080016    9.918578    3.499725
 N    2.267240    1.075191    4.848855
 N   -4.282493    9.567877    3.499725
 N   10.629748    1.425892    4.848855
 N    6.549733    6.165672    6.282585
 N    6.144778    1.163507    7.631715
 N    4.080016    2.589399    6.282585
 N    8.614494    4.739780    7.631715
 N    8.412017    2.238698    6.282585
 N    4.282493    5.090481    7.631715
 N    0.202478    9.830261    0.716865
 N   -0.202478    4.828097    2.065995
 N   -2.267240    6.253989    0.716865
 N    2.267240    8.404369    2.065995
 N    2.064762    5.903287    0.716865
 N   -2.064762    8.755071    2.065995
 P    2.568099    0.228670    3.478575
 P    3.779155   10.765099    4.870006
 P   11.212426    2.109704    3.478575
 P   -4.865171    8.884065    4.870006
 P    5.261240    8.655394    3.478575
 P    1.086015    2.338375    4.870006
 P    8.915355    3.893260    6.261436
 P    3.779156    3.435919    7.652865
 P    4.865171    5.774293    6.261436
 P    7.829340    1.554885    7.652865
 P    5.261240    1.326215    6.261436
 P    7.433270    6.002964    7.652865
 P    2.568099    7.557849    0.695715
 P   -2.568099    7.100509    2.087145
 P   -1.482084    9.438883    0.695715
 P    1.482084    5.219475    2.087145
 P   -1.086015    4.990805    0.695715
 P    1.086015    9.667553    2.087145
 P    2.514148    0.067062    0.642841
 P    3.833107   10.926706    7.705739
 P   11.379359    2.143785    0.642841
 P   -5.032104    8.849984    7.705739
 P    5.148259    8.782922    0.642841
 P    1.198997    2.210847    7.705739
 P    8.861403    3.731652    3.425701
 P    3.833107    3.597528    2.140019
 P    5.032104    5.808375    3.425701
 P    7.662407    1.520805    2.140019
 P    5.148259    1.453743    3.425701
 P    7.546252    5.875437    2.140019
 P    2.514148    7.396241    6.208561
 P   -2.514148    7.262117    4.922880
 P   -1.315151    9.472964    6.208561
 P    1.315151    5.185394    4.922880
 P   -1.198997    5.118332    6.208561
 P    1.198997    9.540026    4.922880
