         100
 alat =    8.9934108191583793       : rs=1.25
 S       3.7161581546008366   5.2769853633745889   6.8265769269818195
 S       1.0812826946043890   2.2451984183283420   6.0700380114860613
 S       4.6715854030341832   7.3644850292862269   8.2414928915817782
 S       4.4575179445429276   2.0781694904753167   0.8945158927660019
 S       1.5977035333567393   1.4122120707499966   4.0915057893852413
 S       8.7113399956884674   1.5170081231332460   2.2897220736105286
 S       0.8961205647759679   3.1143950829314320   0.8801593742574544
 S       8.5408850795606206   4.1222823164544931   5.5479265711466264
 S       7.8235423131538040   1.6905853555659933   8.9714816945951537
 S       7.2170138418441452   0.5909156433287425   7.3361547587583784
 S       7.9716028567282109   3.2678999678525846   1.3015602879630910
 S       3.6043910099938676   3.8542368324481551   4.9244520967432708
 S       3.2972635897692322   7.5536701134277946   6.8875255198775118
 S       7.4112244058698202   8.0905621357928066   4.6164392468317450
 S       0.2641803355853090   4.5345905914568458   7.0961278118856725
 S       3.8757157661337009   1.7972338107172627   8.1685405186900422
 S       0.2856874941270945   2.6065254580724435   7.8950889837559419
 S       2.9643383106220269   3.9605148377830885   0.6790849714160786
 S       2.3222116526853678   5.5577281986138880   1.3655159270964881
 S       8.4764338039677085   7.7603488103412079   7.7081196147446054
 S       6.4093100222697714   8.6579521824760075   2.9396673095371573
 S       6.3341782015703734   7.1603480180343411   1.2472790639419127
 S       2.7501402636874337   7.5605572127843494   0.7446202422408134
 S       6.6207132422901722   7.7510031549974938   6.4406514180840331
 S       4.9685605263602168   7.2173667198035654   3.0325838178216573
 S       6.4901125973041083   0.7673509370271989   5.2572830787962985
 S       1.8879080589235897   5.1323324933182981   6.3378381933269585
 S       8.1233745538976532   6.2554532313736164   1.0222720240002368
 S       3.2652966854375052   0.4704067697799147   1.2252464088509256
 S       2.7370406638152818   6.2042092360037158   8.1544985878562546
 S       5.6257591591028371   1.6366772748379359   7.5526271372729319
 S       1.9370471029507632   1.8497668677494261   2.1683117342083480
 S       8.3877574535401926   8.1106085902428262   2.2782921723788916
 S       5.0766626574190612   2.7045723683003566   3.7383675630845090
 S       0.0931413735888192   2.8401893609626736   4.1796670908295139
 S       7.1389067378543904   0.8193057425539048   1.4519881367826935
 S       8.3136380376248979   1.4970883098903089   5.6368757154250302
 S       0.6723953658522108   0.7720605834631069   0.6501513981190781
 S       5.0988854843123148   0.1127034734180676   4.1908755896963124
 S       7.1681191559241118   5.5536123434932838   4.6549268129907189
 S       3.7996384683635220   8.9747034239198928   8.2915176977575005
 S       8.9049839066008705   8.6125758925191693   5.9414435953789955
 S       5.5570911343793847   4.4043528075130949   5.1013189192768591
 S       2.9960867592280991   7.3395888981845863   2.8494516623595536
 S       8.5219692434495684   0.4924376055060056   4.0828272735031330
 S       2.1593422846000552   6.6773529524874045   4.6453044156344054
 S       0.9097236224352391   3.5392813611500222   2.7058432038260598
 S       0.2952922838420556   0.5931121936940509   7.7662054751578866
 S       0.8430896275002669   7.1907027072077634   0.7843622792447459
 S       3.5339149841977404   2.9809645774315996   2.5954995264032319
 S       7.7170989695160372   2.7518430589802820   7.0192373932704060
 S       3.8231166736307887   5.9334043404440449   4.9636689144600004
 S       2.1436252958087945   1.8718874682301090   8.9634482352708691
 S       0.8212389851094130   6.2472453858680153   8.0824148843018371
 S       5.6902357043171543   5.3479221804254804   8.5822038315550273
 S       7.3113378303064511   3.9858969628382197   3.1898012968763396
 S       3.0160309773302454   3.1789555356444246   6.7809020362367294
 S       5.4010360251941263   6.1470256915930506   6.7690574721286971
 S       2.9302231582867684   0.2077541322872305   3.3834481092951258
 S       2.3598057060798379   1.2456849941209518   6.9784126320357460
 S       3.2654985672375276   2.1245348005087163   4.3411094288972709
 S       7.0008168576409027   5.0822369674799628   6.6506624087512884
 S       5.3827737609598190   6.7545342670682205   5.0163794408732016
 S       1.4790919671186140   8.8792516492599898   2.1648911158269084
 S       0.5967787104121464   5.4902724921798471   4.7166511862745182
 S       1.3699988829445722   7.2216518047643818   6.5406617992530363
 S       3.4002505701250296   8.1184785358917306   4.9172583442294595
 S       1.8750679214515407   8.5314310375561533   8.2087505985319353
 S       8.5465099173489509   6.7403213526876247   3.6740147501017688
 S       0.8368981137746173   8.1852842188896133   3.9908942024411735
 S       6.9697685257832491   1.7664557489625679   3.4565263685296141
 S       6.0805442081835510   2.9883141911828774   8.9506007901758800
 S       3.7167229820107024   1.0688421082272750   5.8372260022252869
 S       2.3275128665284250   4.7256538298920958   3.4739405144875444
 S       7.4617835310216272   6.2328328909920252   8.2878229012172255
 S       6.4785379986958569   5.0513037748094343   1.3936314128669776
 S       1.6857311823701091   0.0076074831004042   5.6560570808568889
 S       4.6931310730291154   1.2022224925114691   2.5805468810443788
 S       6.5837319034103450   7.8785743459343180   8.3455251991224078
 S       6.9459306425859078   2.9392437589930291   4.9500120789162212
 S       4.3472400310859634   3.7474076296347403   8.2177492093117035
 S       8.2644631969283182   8.4504207799020055   0.3779838518974271
 S       3.8822429625830890   5.6336097638713412   2.6372513819776304
 S       1.8425711987199054   4.0481394456601336   8.0252384973474467
 S       0.4940268960540408   4.7532395914614378   0.3074646378400172
 S       5.3698356510776257   4.5810834940331695   3.2792719268939665
 S       8.9255720331625970   5.0714367120751085   2.5687640915187888
 S       4.8770379783509625   4.0609229937796707   1.3363801135648434
 S       8.3467473495749847   6.4564641194262640   6.1522025488343619
 S       4.2696236951791624   6.0537665205647491   0.8184156361924874
 S       5.0749488436854202   8.7365192015389876   6.5273708835238295
 S       1.0926100051685788   6.5339360015117345   2.5737309554969992
 S       1.6588437935547797   3.6103391480000555   4.9878573378213131
 S       5.7192336958274508   3.7957636909658237   6.8440589865453179
 S       4.7731166806983305   8.4000814450519670   1.4835274494892237
 S       6.6884879118510820   6.1959373079375988   3.0800711727054049
 S       7.5838696352094770   4.1173896463074211   8.6917082722995023
 S       6.2440238090793434   2.5527105572143474   1.8603450810929447
 S       5.7599134566831678   0.4689255337273546   0.2143454788493685
 S       5.2357286307235080   2.2215927311867936   5.8513351455602214
